Version 4
SHEET 1 1192 1184
TEXT 312 128 Left 3 !Vdd 1 0 dc 2.5V\nM1 2 4 6 0 nmos1\nM2 3 5 6 0 nmos2\nM3 2 2 1 1 pmos3\nM4 3 2 1 1 pmos4\nM5 6 8 7 7 nmos5\nM6 9 3 1 1 pmos6\nM7 9 8 7 7 nmos7\nM8 8 8 7 7 nmos8\nVss 0 7 dc 2.5V\nIref 1 8 dc 30uA\nCc 3 9 3pf\nCl 9 0 10pf\nVb1 4 10 dc 1V\nvb2 5 11 dc 1V\nVin1 10 0 sin(0 -50uV 1K)\nVin2 11 0 sin(0 50UV 1K)\n.model nmos1 nmos(vt0=0.7V lambda=0.04 kp=330u)\n.model nmos2 nmos(vt0=0.7V lambda=0.04 kp=330u)\n.model pmos3 pmos(vt0=-0.7V lambda=0.05 kp=750u)\n.model pmos4 pmos(vt0=-0.7V lambda=0.05 kp=750u)\n.model nmos5 nmos(vt0=0.7V lambda=0.04 kp=495u)\n.model pmos6 pmos(vt0=-0.7V lambda=0.05 kp=4700u)\n.model nmos7 nmos(vt0=0.7V lambda=0.04 kp=1540u)\n.model nmos8 nmos(vt0=0.7V lambda=0.04 kp=495u)\n.tran 0ms 5ms\n.meas Vd PP V(11)-V(10)\n.meas Vout PP V(9)\n.meas Gain param Vout/Vd
